Version 4
SHEET 1 880 680
WIRE -80 96 -432 96
WIRE 64 96 -80 96
WIRE 64 144 64 96
WIRE 16 176 -16 176
WIRE -16 224 -16 176
WIRE -16 224 -192 224
WIRE -80 240 -80 96
WIRE -192 304 -192 224
WIRE -192 304 -544 304
WIRE -112 304 -112 288
WIRE -112 304 -192 304
WIRE -48 304 -48 288
WIRE 64 304 64 208
WIRE 64 304 -48 304
WIRE 144 304 64 304
WIRE -112 320 -112 304
WIRE -48 320 -48 304
WIRE 64 336 64 304
WIRE -16 368 -16 224
WIRE 16 368 -16 368
WIRE -336 384 -336 352
WIRE -432 464 -432 96
WIRE -432 464 -528 464
WIRE -384 464 -384 416
WIRE -384 464 -432 464
WIRE -336 464 -336 448
WIRE -80 464 -80 368
WIRE -80 464 -336 464
WIRE 64 464 64 400
WIRE 64 464 -80 464
WIRE -336 480 -336 464
WIRE -384 512 -384 464
WIRE -336 592 -336 544
FLAG -336 592 0
FLAG -544 304 input_A
IOPIN -544 304 In
FLAG -528 464 input_B
IOPIN -528 464 In
FLAG -336 352 VDD
IOPIN -336 352 BiDir
FLAG 144 304 OUTPUT
IOPIN 144 304 Out
SYMBOL nmosx_TT 16 336 R0
SYMATTR InstName U1
SYMATTR Value W={w}
SYMBOL pmosx_TT 16 144 R0
SYMATTR InstName U3
SYMATTR Value W=2*{w}
SYMBOL pmosx_TT -384 384 R0
SYMATTR InstName U2
SYMATTR Value W=2*{w}
SYMBOL nmosx_TT -384 480 R0
SYMATTR InstName U4
SYMATTR Value W={w}
SYMBOL nmosx_TT -112 368 R270
SYMATTR InstName U5
SYMATTR Value W={w}
SYMBOL pmosx_TT -48 240 R90
SYMATTR InstName U6
SYMATTR Value W={w}
