Version 4
SHEET 1 1796 876
WIRE 384 -80 384 -144
WIRE 1600 -80 1600 -160
WIRE 304 -64 272 -64
WIRE 1472 -64 944 -64
WIRE 1792 -64 1712 -64
WIRE 304 -32 272 -32
WIRE 800 -32 800 -112
WIRE 1472 -32 976 -32
WIRE 1792 -32 1712 -32
WIRE 672 -16 448 -16
WIRE 944 -16 944 -64
WIRE 944 -16 912 -16
WIRE 304 0 272 0
WIRE 1472 0 1392 0
WIRE 672 16 448 16
WIRE 992 16 912 16
WIRE 304 32 272 32
WIRE 976 32 976 -32
WIRE 976 32 944 32
WIRE 672 48 448 48
WIRE 304 64 272 64
WIRE -320 96 -320 16
WIRE 304 96 272 96
WIRE 304 128 16 128
WIRE 304 160 16 160
WIRE 800 160 800 112
WIRE 1200 160 1200 80
WIRE 672 176 448 176
WIRE 944 176 944 32
WIRE 944 176 912 176
WIRE 992 176 992 16
WIRE 1072 176 992 176
WIRE 1392 176 1392 0
WIRE 1392 176 1312 176
WIRE 304 192 16 192
WIRE 672 208 448 208
WIRE 1072 208 912 208
WIRE 1792 208 1312 208
WIRE -320 224 -320 176
WIRE 304 224 16 224
WIRE 672 240 448 240
WIRE 1072 240 1024 240
WIRE 304 256 16 256
WIRE 304 288 16 288
WIRE 384 480 384 416
WIRE 1600 480 1600 400
WIRE 304 496 272 496
WIRE 1472 496 944 496
WIRE 1792 496 1712 496
WIRE 304 528 272 528
WIRE 800 528 800 448
WIRE 1472 528 976 528
WIRE 1792 528 1712 528
WIRE 672 544 448 544
WIRE 944 544 944 496
WIRE 944 544 912 544
WIRE 304 560 272 560
WIRE 1472 560 1392 560
WIRE 672 576 448 576
WIRE 992 576 912 576
WIRE 304 592 272 592
WIRE 976 592 976 528
WIRE 976 592 944 592
WIRE 672 608 448 608
WIRE 304 624 272 624
WIRE 304 656 272 656
WIRE 304 688 16 688
WIRE 304 720 16 720
WIRE 800 720 800 672
WIRE 1200 720 1200 640
WIRE 672 736 448 736
WIRE 944 736 944 592
WIRE 944 736 912 736
WIRE 992 736 992 576
WIRE 1072 736 992 736
WIRE 1392 736 1392 560
WIRE 1392 736 1312 736
WIRE 304 752 16 752
WIRE 672 768 448 768
WIRE 1072 768 912 768
WIRE 1792 768 1312 768
WIRE 304 784 16 784
WIRE 672 800 448 800
WIRE 1072 800 1024 800
WIRE 304 816 16 816
WIRE 304 848 16 848
FLAG 384 -144 VDD
FLAG 800 -112 VDD
FLAG 800 112 VDD
FLAG 272 -64 VDD
FLAG 272 32 VDD
FLAG 272 96 VDD
FLAG 272 -32 0
FLAG 272 0 0
FLAG 272 64 0
FLAG 1200 80 VDD
FLAG 1600 -160 VDD
FLAG 1024 240 0
FLAG -320 16 VDD
FLAG -320 224 0
FLAG 384 416 VDD
FLAG 800 448 VDD
FLAG 800 672 VDD
FLAG 272 656 VDD
FLAG 1200 640 VDD
FLAG 1600 400 VDD
FLAG 1024 800 0
FLAG 272 496 0
FLAG 272 528 0
FLAG 272 592 0
FLAG 272 624 VDD
FLAG 272 560 VDD
SYMBOL FA_cmos 784 16 R0
SYMATTR InstName X2
SYMATTR SpiceLine W=1
SYMBOL FA_cmos 784 208 R0
SYMATTR InstName X3
SYMATTR SpiceLine W=1
SYMBOL XOR_BATCH 368 112 R0
SYMATTR InstName xor_batch
SYMATTR SpiceLine W=1
SYMBOL INPUT_GEN -48 192 R0
SYMATTR InstName X1
SYMBOL FA_cmos 1184 208 R0
SYMATTR InstName X5
SYMATTR SpiceLine W=1
SYMBOL FA_cmos 1584 -32 R0
SYMATTR InstName X6
SYMATTR SpiceLine W=1
SYMBOL voltage -320 80 R0
WINDOW 123 0 0 Left 0
WINDOW 39 0 0 Left 0
SYMATTR InstName V1
SYMATTR Value 1
SYMBOL FA_cmos 784 576 R0
SYMATTR InstName X4
SYMATTR SpiceLine W=1
SYMBOL FA_cmos 784 768 R0
SYMATTR InstName X7
SYMATTR SpiceLine W=1
SYMBOL XOR_BATCH 368 672 R0
SYMATTR InstName xor_batch1
SYMATTR SpiceLine W=1
SYMBOL INPUT_GEN -48 752 R0
SYMATTR InstName X8
SYMBOL FA_cmos 1184 768 R0
SYMATTR InstName X9
SYMATTR SpiceLine W=1
SYMBOL FA_cmos 1584 528 R0
SYMATTR InstName X10
SYMATTR SpiceLine W=1
TEXT -354 318 Left 2 !.tran 10N
