Version 4
SHEET 1 1156 680
WIRE 960 -128 960 -160
WIRE 192 -96 80 -96
WIRE 224 -96 224 -128
WIRE 224 -96 192 -96
WIRE 352 -96 224 -96
WIRE 672 -96 672 -144
WIRE 672 -96 560 -96
WIRE 768 -96 672 -96
WIRE 912 -96 880 -96
WIRE 32 -64 0 -64
WIRE 144 -64 128 -64
WIRE 304 -64 288 -64
WIRE 512 -64 480 -64
WIRE 624 -64 608 -64
WIRE 960 -48 960 -64
WIRE 80 -16 80 -32
WIRE 112 -16 80 -16
WIRE 192 -16 192 -32
WIRE 192 -16 112 -16
WIRE 560 -16 560 -32
WIRE 592 -16 560 -16
WIRE 672 -16 672 -32
WIRE 672 -16 592 -16
WIRE 768 -16 768 -32
WIRE 768 -16 672 -16
WIRE 912 -16 896 -16
WIRE -224 0 -304 0
WIRE 112 16 112 -16
WIRE 352 16 352 -32
WIRE 592 16 592 -16
WIRE -224 32 -304 32
WIRE 960 32 960 16
WIRE 64 48 48 48
WIRE 304 48 288 48
WIRE 544 48 512 48
WIRE -224 64 -304 64
WIRE 912 64 880 64
WIRE -224 96 -304 96
WIRE 48 112 48 48
WIRE 48 112 0 112
WIRE 112 112 112 80
WIRE 352 112 352 80
WIRE 352 112 112 112
WIRE 432 112 352 112
WIRE 512 112 512 48
WIRE 512 112 432 112
WIRE 592 112 592 80
WIRE 896 112 592 112
WIRE 960 112 960 96
WIRE 960 112 896 112
WIRE -224 128 -304 128
WIRE 960 128 960 112
WIRE 112 144 112 112
WIRE 352 144 352 112
WIRE 592 144 592 112
WIRE -224 160 -304 160
WIRE 912 160 880 160
WIRE 48 176 48 112
WIRE 64 176 48 176
WIRE 304 176 288 176
WIRE 512 176 512 112
WIRE 544 176 512 176
WIRE 112 208 80 208
WIRE 192 208 112 208
WIRE 592 208 560 208
WIRE 672 208 592 208
WIRE 768 208 672 208
WIRE 960 208 960 192
WIRE 912 240 880 240
WIRE 80 256 80 208
WIRE 192 256 192 208
WIRE 352 256 352 208
WIRE 560 256 560 208
WIRE 672 256 672 208
WIRE 768 256 768 208
WIRE 32 288 0 288
WIRE 144 288 144 272
WIRE 304 288 288 288
WIRE 512 288 480 288
WIRE 624 288 624 272
WIRE 720 288 720 272
WIRE 960 288 960 272
WIRE 192 320 80 320
WIRE 208 320 192 320
WIRE 352 320 208 320
WIRE 672 320 560 320
WIRE 688 320 672 320
WIRE 768 320 688 320
WIRE 912 320 896 320
WIRE 208 384 208 320
WIRE 688 384 688 320
WIRE 960 384 960 352
FLAG 224 -128 VDD
IOPIN 224 -128 BiDir
FLAG 208 384 0
FLAG 672 -144 VDD
IOPIN 672 -144 BiDir
FLAG 688 384 0
FLAG 960 384 0
FLAG 960 -160 VDD
IOPIN 960 -160 BiDir
FLAG 0 -64 A
FLAG 0 288 A
FLAG 288 288 B
FLAG 128 -64 B
FLAG 288 176 A
FLAG 288 48 A
FLAG 0 112 C_in
FLAG 480 -64 A
FLAG 288 -64 B
FLAG 608 -64 B
FLAG 880 -96 A
FLAG 880 240 A
FLAG 896 320 B
FLAG 896 -16 B
FLAG 880 64 C_in
FLAG 880 160 C_in
FLAG 480 288 A
FLAG 144 272 B
FLAG 624 272 B
FLAG 720 272 C_in
FLAG -224 0 A
FLAG -224 32 B
FLAG -224 64 VDD
FLAG -224 96 C_in
FLAG -224 128 C_out_bar
FLAG -224 160 S_bar
FLAG 896 112 S_bar
FLAG 432 112 C_out_bar
FLAG -304 0 A
IOPIN -304 0 In
FLAG -304 32 B
IOPIN -304 32 In
FLAG -304 64 VDD
IOPIN -304 64 BiDir
FLAG -304 96 C_in
IOPIN -304 96 In
FLAG -304 128 C_out_bar
IOPIN -304 128 Out
FLAG -304 160 S_bar
IOPIN -304 160 Out
SYMBOL nmosx_TT 64 144 R0
SYMATTR InstName U1
SYMATTR Value W={w}
SYMBOL nmosx_TT 32 256 R0
SYMATTR InstName U2
SYMATTR Value W={w}
SYMBOL nmosx_TT 144 256 R0
SYMATTR InstName U3
SYMATTR Value W={w}
SYMBOL nmosx_TT 304 144 R0
SYMATTR InstName U4
SYMATTR Value W={w}
SYMBOL nmosx_TT 304 256 R0
SYMATTR InstName U5
SYMATTR Value W={w}
SYMBOL pmosx_TT 64 16 R0
SYMATTR InstName U6
SYMATTR Value W=2*{w}
SYMBOL pmosx_TT 32 -96 R0
SYMATTR InstName U7
SYMATTR Value W=2*{w}
SYMBOL pmosx_TT 144 -96 R0
SYMATTR InstName U8
SYMATTR Value W=2*{w}
SYMBOL pmosx_TT 304 -96 R0
SYMATTR InstName U9
SYMATTR Value W=2*{w}
SYMBOL pmosx_TT 304 16 R0
SYMATTR InstName U10
SYMATTR Value W=2*{w}
SYMBOL nmosx_TT 544 144 R0
SYMATTR InstName U11
SYMATTR Value W={w}
SYMBOL nmosx_TT 512 256 R0
SYMATTR InstName U12
SYMATTR Value W={w}
SYMBOL nmosx_TT 624 256 R0
SYMATTR InstName U13
SYMATTR Value W={w}
SYMBOL pmosx_TT 544 16 R0
SYMATTR InstName U14
SYMATTR Value W=2*{w}
SYMBOL pmosx_TT 512 -96 R0
SYMATTR InstName U15
SYMATTR Value W=2*{w}
SYMBOL pmosx_TT 624 -96 R0
SYMATTR InstName U16
SYMATTR Value W=2*{w}
SYMBOL pmosx_TT 720 -96 R0
SYMATTR InstName U18
SYMATTR Value W=2*{w}
SYMBOL nmosx_TT 720 256 R0
SYMATTR InstName U19
SYMATTR Value W={w}
SYMBOL nmosx_TT 912 128 R0
SYMATTR InstName U17
SYMATTR Value W={w}
SYMBOL nmosx_TT 912 208 R0
SYMATTR InstName U20
SYMATTR Value W={w}
SYMBOL pmosx_TT 912 -48 R0
SYMATTR InstName U21
SYMATTR Value W=2*{w}
SYMBOL pmosx_TT 912 32 R0
SYMATTR InstName U22
SYMATTR Value W=2*{w}
SYMBOL pmosx_TT 912 -128 R0
SYMATTR InstName U23
SYMATTR Value W=2*{w}
SYMBOL nmosx_TT 912 288 R0
SYMATTR InstName U24
SYMATTR Value W={w}
