Version 4
SHEET 1 2344 680
WIRE 272 64 96 64
WIRE 96 128 96 64
WIRE 96 304 96 208
FLAG 96 304 0
SYMBOL voltage 96 112 R0
WINDOW 123 0 0 Left 0
WINDOW 39 0 0 Left 0
SYMATTR InstName V1
SYMATTR Value PWL(0 0 {x} 0 {x+t} 0 {2*x} 0 {2*x+t} 0 {3*x} 0 {3*x+t} 1 {4*x} 1 {4*x+t} 1 {5*x} 1 {5*x+t} 1 {6*x} 1 {6*x+t} 1 {7*x} 1 {7*x+t} 0 {8*x} 0 {8*x+t} 1 {9*x} 1 {9*x+t} 0 {10*x} 0 )
TEXT 120 240 Left 2 !.param x = 1n
TEXT 120 272 Left 2 !.param t = 0.001n
TEXT 120 352 Left 2 !.tran 10n
TEXT 56 32 Left 2 ;input x0 vector 0001111010 Example
