Version 4
SHEET 1 2360 680
WIRE 416 32 416 -32
WIRE 288 48 112 48
WIRE 624 48 528 48
WIRE 112 80 112 48
WIRE 288 80 240 80
WIRE 624 80 528 80
WIRE 288 112 240 112
WIRE -304 128 -304 64
WIRE 112 144 112 80
WIRE -304 304 -304 208
WIRE 112 320 112 224
FLAG 112 320 0
FLAG -304 304 0
FLAG -304 64 VDD
FLAG 112 80 INPUT
FLAG 240 80 VDD
FLAG 240 112 INPUT
FLAG 416 -32 VDD
SYMBOL voltage 112 128 R0
WINDOW 123 0 0 Left 0
WINDOW 39 0 0 Left 0
SYMATTR InstName V1
SYMATTR Value PWL(0 0 {x} 0 {x+t} 0 {2*x} 0 {2*x+t} 0 {3*x} 0 {3*x+t} 1 {4*x} 1 {4*x+t} 1 {5*x} 1 {5*x+t} 1 {6*x} 1 {6*x+t} 1 {7*x} 1 {7*x+t} 0 {8*x} 0 {8*x+t} 1 {9*x} 1 {9*x+t} 0 {10*x} 0 )
SYMBOL voltage -304 112 R0
WINDOW 123 0 0 Left 0
WINDOW 39 0 0 Left 0
SYMATTR InstName V2
SYMATTR Value 1.0
SYMBOL FA_cmos 400 80 R0
SYMATTR InstName X1
SYMATTR SpiceLine w=2
TEXT 120 240 Left 2 !.param x = 1n
TEXT 120 272 Left 2 !.param t = 0.001n
TEXT 120 352 Left 2 !.tran 10n
TEXT -152 -48 Left 2 ;input x0 vector 0001111010 Example
