Version 4
SHEET 1 880 680
WIRE 144 112 144 80
WIRE 144 192 144 176
WIRE 208 192 144 192
WIRE 96 208 96 144
WIRE 96 208 48 208
WIRE 208 208 208 192
WIRE 144 224 144 192
WIRE 96 256 96 208
WIRE 144 304 144 288
FLAG 144 80 VDD
IOPIN 144 80 BiDir
FLAG 48 208 IN
IOPIN 48 208 In
FLAG 208 208 OUT
IOPIN 208 208 Out
FLAG 144 304 0
SYMBOL pmosx_TT 96 112 R0
SYMATTR InstName U1
SYMATTR Value W=2*{W}
SYMBOL nmosx_TT 96 224 R0
SYMATTR InstName U2
SYMATTR Value W={W}
