Version 4
SHEET 1 1180 1240
WIRE 128 48 128 -16
WIRE 832 48 832 -16
WIRE 48 112 -112 112
WIRE 752 112 592 112
WIRE 320 128 272 128
WIRE 1024 128 976 128
WIRE 48 144 -112 144
WIRE 752 144 592 144
WIRE 864 368 864 304
WIRE 144 384 144 320
WIRE 784 432 624 432
WIRE 64 448 -96 448
WIRE 1056 448 1008 448
WIRE 336 464 288 464
WIRE 784 464 624 464
WIRE 64 480 -96 480
WIRE 144 704 144 640
WIRE 864 704 864 640
WIRE 64 768 -96 768
WIRE 784 768 624 768
WIRE 336 784 288 784
WIRE 1056 784 1008 784
WIRE 64 800 -96 800
WIRE 784 800 624 800
FLAG -112 112 X_0
IOPIN -112 112 In
FLAG 128 -16 VDD
IOPIN 128 -16 BiDir
FLAG -112 144 W_0
IOPIN -112 144 In
FLAG -96 448 X_1
IOPIN -96 448 In
FLAG 144 320 VDD
IOPIN 144 320 BiDir
FLAG -96 480 W_1
IOPIN -96 480 In
FLAG -96 768 X_2
IOPIN -96 768 In
FLAG 144 640 VDD
IOPIN 144 640 BiDir
FLAG -96 800 W_2
IOPIN -96 800 In
FLAG 592 112 X_3
IOPIN 592 112 In
FLAG 832 -16 VDD
IOPIN 832 -16 BiDir
FLAG 592 144 W_3
IOPIN 592 144 In
FLAG 624 432 X_4
IOPIN 624 432 In
FLAG 864 304 VDD
IOPIN 864 304 BiDir
FLAG 624 464 W_4
IOPIN 624 464 In
FLAG 624 768 X_5
IOPIN 624 768 In
FLAG 864 640 VDD
IOPIN 864 640 BiDir
FLAG 624 800 W_5
IOPIN 624 800 In
FLAG 320 128 OUT0
IOPIN 320 128 Out
FLAG 336 464 OUT1
IOPIN 336 464 Out
FLAG 336 784 OUT2
IOPIN 336 784 Out
FLAG 1056 784 OUT5
IOPIN 1056 784 Out
FLAG 1056 448 OUT4
IOPIN 1056 448 Out
FLAG 1024 128 OUT3
IOPIN 1024 128 Out
SYMBOL 6T_XOR 176 128 R0
SYMATTR InstName X1
SYMATTR SpiceLine W={w}
SYMBOL 6T_XOR 192 464 R0
SYMATTR InstName X2
SYMATTR SpiceLine w={w}
SYMBOL 6T_XOR 192 784 R0
SYMATTR InstName X3
SYMATTR SpiceLine w={w}
SYMBOL 6T_XOR 880 128 R0
SYMATTR InstName X4
SYMATTR SpiceLine w={w}
SYMBOL 6T_XOR 912 448 R0
SYMATTR InstName X5
SYMATTR SpiceLine w={w}
SYMBOL 6T_XOR 912 784 R0
SYMATTR InstName X6
SYMATTR SpiceLine w={w}
